L6/1726518/Linhas.dss
! ==========================================================
! LINHAS — geradas de SSDMT
! Barras = PAC_1 / PAC_2 da BDGD (preservados)
! ==========================================================
New Line.245554131 Bus1=node_433779300.1.2.3 Bus2=node_433951664.1.2.3 LineCode=CND_30_3F Length=65.97 Units=m
New Line.244011575 Bus1=node_425912907.1 Bus2=node_425912908.1 LineCode=CND_907_1F Length=295.51 Units=m
New Line.244862112 Bus1=node_430150252.2 Bus2=node_430311709.2 LineCode=CND_907_1F Length=41.53 Units=m
New Line.244534338 Bus1=node_429162298.2 Bus2=node_429162299.2 LineCode=CND_907_1F Length=82.79 Units=m
New Line.244861256 Bus1=node_430147899.3 Bus2=node_430148442.3 LineCode=CND_907_1F Length=78.56 Units=m
New Line.244698953 Bus1=node_429474399.1 Bus2=node_429474400.1 LineCode=CND_907_1F Length=194.34 Units=m
New Line.245018768 Bus1=node_431434083.1 Bus2=node_431434279.1 LineCode=CND_907_1F Length=227.55 Units=m
New Line.244362446 Bus1=node_428315704.3 Bus2=node_428315705.3 LineCode=CND_907_1F Length=145.71 Units=m
New Line.244531203 Bus1=node_428481045.2 Bus2=node_428481046.2 LineCode=CND_907_1F Length=154.20 Units=m
New Line.962951057 Bus1=node_428984525.2 Bus2=node_1225013944.2 LineCode=CND_907_1F Length=2.92 Units=m
New Line.244530961 Bus1=node_428317225.2 Bus2=node_428479486.2 LineCode=CND_907_1F Length=73.44 Units=m
New Line.244864984 Bus1=node_430781264.1 Bus2=node_430781265.1 LineCode=CND_907_1F Length=140.04 Units=m
New Line.1775049658 Bus1=node_2100762948.2 Bus2=node_2100762959.2 LineCode=CND_915_1F Length=49.50 Units=m
New Line.245352644 Bus1=node_433030818.1.2.3 Bus2=node_433030819.1.2.3 LineCode=CND_51_3F Length=295.61 Units=m
New Line.2547812133 Bus1=node_424114439.1.2.3 Bus2=node_424114440.1.2.3 LineCode=CND_10_3F Length=42.61 Units=m
New Line.2543671430 Bus1=node_428479782.1 Bus2=node_2840318254.1 LineCode=CND_996_1F Length=100.44 Units=m
New Line.243601915 Bus1=node_424185975.1.2.3 Bus2=node_424186093.1.2.3 LineCode=CND_13_3F Length=96.58 Units=m
New Line.247635561 Bus1=node_444068404.1 Bus2=node_444068448.1 LineCode=CND_909_1F Length=30.12 Units=m
New Line.244700308 Bus1=node_429648280.2 Bus2=node_429645745.2 LineCode=CND_907_1F Length=29.01 Units=m
New Line.2563599821 Bus1=node_2701171260.1.2.3 Bus2=node_2701171271.1.2.3 LineCode=CND_3_3F Length=38.15 Units=m
New Line.245352053 Bus1=node_432800241.1.2.3 Bus2=node_432800266.1.2.3 LineCode=CND_51_3F Length=169.18 Units=m
New Line.2113219288 Bus1=node_2428218643.1.2.3 Bus2=node_2428218687.1.2.3 LineCode=CND_10_3F Length=28.89 Units=m
New Line.246253250 Bus1=node_437250384.2 Bus2=node_437250669.2 LineCode=CND_907_1F Length=179.57 Units=m
New Line.245836113 Bus1=node_434993406.2 Bus2=node_434993411.2 LineCode=CND_907_1F Length=35.10 Units=m
New Line.245016083 Bus1=node_430934890.2 Bus2=node_430935604.2 LineCode=CND_907_1F Length=329.80 Units=m
New Line.245353830 Bus1=node_433242880.1.2.3 Bus2=node_424079563.1.2.3 LineCode=CND_20_3F Length=33.04 Units=m
New Line.245017810 Bus1=node_431269982.1.2.3 Bus2=node_431270076.1.2.3 LineCode=CND_11_3F Length=179.66 Units=m
New Line.247494728 Bus1=node_443527400.1.2.3 Bus2=node_428640398.1.2.3 LineCode=CND_13_3F Length=22.18 Units=m
New Line.748092215 Bus1=node_1021560086.1 Bus2=node_1021560137.1 LineCode=CND_907_1F Length=109.96 Units=m
New Line.246253782 Bus1=node_437253328.2 Bus2=node_437253268.2 LineCode=CND_907_1F Length=68.96 Units=m
New Line.244531688 Bus1=node_428642348.2 Bus2=node_428642349.2 LineCode=CND_907_1F Length=350.71 Units=m
New Line.243602196 Bus1=node_424217963.1.2.3 Bus2=node_424217968.1.2.3 LineCode=CND_28_3F Length=40.82 Units=m
New Line.246252766 Bus1=node_437067892.1 Bus2=node_437067893.1 LineCode=CND_907_1F Length=87.86 Units=m
New Line.244533772 Bus1=node_428987675.1 Bus2=node_428987664.1 LineCode=CND_907_1F Length=37.15 Units=m
New Line.244861986 Bus1=node_430149952.1.2.3 Bus2=node_430151006.1.2.3 LineCode=CND_11_3F Length=123.29 Units=m
New Line.244360171 Bus1=node_427806225.2 Bus2=node_427805301.2 LineCode=CND_907_1F Length=99.42 Units=m
New Line.247341744 Bus1=node_442912490.1 Bus2=node_427473833.1 LineCode=CND_909_1F Length=40.12 Units=m
New Line.243602085 Bus1=node_424217355.1.2.3 Bus2=node_424217364.1.2.3 LineCode=CND_28_3F Length=35.34 Units=m
New Line.243598911 Bus1=node_424076861.1.2.3 Bus2=node_424076901.1.2.3 LineCode=CND_13_3F Length=135.93 Units=m
New Line.244362789 Bus1=node_428317255.2 Bus2=node_428317420.2 LineCode=CND_907_1F Length=114.29 Units=m
New Line.244012070 Bus1=node_426069970.1.2.3 Bus2=node_426069971.1.2.3 LineCode=CND_11_3F Length=499.03 Units=m
New Line.244189777 Bus1=node_427323527.3 Bus2=node_427323528.3 LineCode=CND_907_1F Length=261.23 Units=m
New Line.243601334 Bus1=node_424183575.1.2.3 Bus2=node_424183192.1.2.3 LineCode=CND_13_3F Length=70.13 Units=m
New Line.244865308 Bus1=node_430933015.1 Bus2=node_430933175.1 LineCode=CND_907_1F Length=158.29 Units=m
New Line.247158995 Bus1=node_441706871.1.2.3 Bus2=node_441706872.1.2.3 LineCode=CND_20_3F Length=50.92 Units=m
New Line.246080328 Bus1=node_436871264.2 Bus2=node_436869685.2 LineCode=CND_907_1F Length=176.41 Units=m
New Line.244698489 Bus1=node_429326006.1.2.3 Bus2=node_429326076.1.2.3 LineCode=CND_11_3F Length=81.46 Units=m
New Line.244532479 Bus1=node_428800038.2 Bus2=node_428800888.2 LineCode=CND_902_1F Length=35.34 Units=m
New Line.244865249 Bus1=node_430782589.2 Bus2=node_430782590.2 LineCode=CND_907_1F Length=82.45 Units=m
New Line.247635061 Bus1=node_437598832.1 Bus2=node_437598897.1 LineCode=CND_909_1F Length=45.81 Units=m
New Line.244360313 Bus1=node_427806206.3 Bus2=node_427974402.3 LineCode=CND_907_1F Length=251.94 Units=m
New Line.244701115 Bus1=node_429811565.1 Bus2=node_429811566.1 LineCode=CND_902_1F Length=83.07 Units=m
New Line.244489002 Bus1=node_428377515.2 Bus2=node_428377450.2 LineCode=CND_907_1F Length=33.79 Units=m
New Line.244700600 Bus1=node_429648435.3 Bus2=node_429808987.3 LineCode=CND_907_1F Length=233.01 Units=m
New Line.244862834 Bus1=node_1716225350.2 Bus2=node_430465617.2 LineCode=CND_907_1F Length=172.70 Units=m
New Line.244012013 Bus1=node_426069671.3 Bus2=node_426069682.3 LineCode=CND_907_1F Length=270.51 Units=m
New Line.244699315 Bus1=node_429476209.1.2.3 Bus2=node_429476210.1.2.3 LineCode=CND_19_3F Length=38.09 Units=m
New Line.244862994 Bus1=node_430314093.1 Bus2=node_430466251.1 LineCode=CND_907_1F Length=143.17 Units=m
New Line.246080115 Bus1=node_436870199.2 Bus2=node_436870004.2 LineCode=CND_907_1F Length=82.47 Units=m
New Line.247159790 Bus1=node_441710846.1.2.3 Bus2=node_441710851.1.2.3 LineCode=CND_50_3F Length=27.88 Units=m
New Line.247495532 Bus1=node_443531431.1.2.3 Bus2=node_443531435.1.2.3 LineCode=CND_50_3F Length=19.76 Units=m
New Line.1289763078 Bus1=node_1588196187.2 Bus2=node_1588196199.2 LineCode=CND_915_1F Length=30.82 Units=m
New Line.246253053 Bus1=node_437069043.1 Bus2=node_437249676.1 LineCode=CND_907_1F Length=122.54 Units=m
New Line.243600392 Bus1=node_424144487.1.2.3 Bus2=node_424144488.1.2.3 LineCode=CND_4_3F Length=49.52 Units=m
New Line.2694726674 Bus1=node_2872473202.2 Bus2=node_2872473814.2 LineCode=CND_911_1F Length=3.30 Units=m
New Line.244701716 Bus1=node_429812205.3 Bus2=node_429981485.3 LineCode=CND_907_1F Length=216.56 Units=m
New Line.244359207 Bus1=node_427625343.2 Bus2=node_427625068.2 LineCode=CND_907_1F Length=102.30 Units=m
New Line.246254713 Bus1=node_433779729.2 Bus2=node_437425372.2 LineCode=CND_907_1F Length=76.53 Units=m
New Line.247495209 Bus1=node_443529825.1.2.3 Bus2=node_443529826.1.2.3 LineCode=CND_4_3F Length=39.21 Units=m
New Line.244699665 Bus1=node_429645425.3 Bus2=node_429645426.3 LineCode=CND_907_1F Length=90.52 Units=m
New Line.246788686 Bus1=node_431100183.3 Bus2=node_437959316.3 LineCode=CND_902_1F Length=74.57 Units=m
New Line.245016176 Bus1=node_430935819.2 Bus2=node_430935743.2 LineCode=CND_907_1F Length=144.86 Units=m
New Line.247495455 Bus1=node_443531055.1 Bus2=node_443531056.1 LineCode=CND_909_1F Length=41.45 Units=m
New Line.244530970 Bus1=node_428479871.3 Bus2=node_428479877.3 LineCode=CND_907_1F Length=116.06 Units=m
New Line.246254474 Bus1=node_437424262.2 Bus2=node_437424263.2 LineCode=CND_907_1F Length=146.47 Units=m
New Line.244701901 Bus1=node_429982968.3 Bus2=node_429982974.3 LineCode=CND_907_1F Length=194.16 Units=m
New Line.244862968 Bus1=node_430313768.1.2.3 Bus2=node_430314047.1.2.3 LineCode=CND_19_3F Length=33.84 Units=m
New Line.1855343156 Bus1=node_2127364011.1 Bus2=node_2127364068.1 LineCode=CND_902_1F Length=40.37 Units=m
New Line.244862481 Bus1=node_430313557.1 Bus2=node_430313558.1 LineCode=CND_907_1F Length=226.42 Units=m
New Line.243601950 Bus1=node_424078298.1.2.3 Bus2=node_424186368.1.2.3 LineCode=CND_13_3F Length=67.10 Units=m
New Line.980694070 Bus1=node_1242714221.3 Bus2=node_1242714188.3 LineCode=CND_902_1F Length=1.76 Units=m
New Line.2227688829 Bus1=node_2553551957.1 Bus2=node_2553552000.1 LineCode=CND_911_1F Length=45.74 Units=m
New Line.247495269 Bus1=node_443530125.1 Bus2=node_443530085.1 LineCode=CND_909_1F Length=40.41 Units=m
New Line.246255485 Bus1=node_433954193.3 Bus2=node_437601106.3 LineCode=CND_907_1F Length=152.01 Units=m
New Line.244864249 Bus1=node_430618699.1.2.3 Bus2=node_430468900.1.2.3 LineCode=CND_11_3F Length=178.36 Units=m
New Line.246254695 Bus1=node_433779724.2 Bus2=node_2336816350.2 LineCode=CND_907_1F Length=230.98 Units=m
New Line.1352734682 Bus1=100_1352734718.1 Bus2=node_1646865275.1 LineCode=CND_902_1F Length=2.58 Units=m
New Line.1121910695 Bus1=node_430311749.1 Bus2=node_1391307803.1 LineCode=CND_902_1F Length=2.17 Units=m
New Line.247493931 Bus1=node_424078777.1.2.3 Bus2=node_443377400.1.2.3 LineCode=CND_13_3F Length=4.91 Units=m
New Line.246252344 Bus1=node_436871485.1.2.3 Bus2=node_437065004.1.2.3 LineCode=CND_88_3F Length=32.15 Units=m
New Line.244362190 Bus1=node_428314030.3 Bus2=node_428314425.3 LineCode=CND_902_1F Length=74.56 Units=m
New Line.247160167 Bus1=node_441910267.1.2.3 Bus2=node_441910061.1.2.3 LineCode=CND_50_3F Length=37.70 Units=m
New Line.244698753 Bus1=node_429325986.2 Bus2=node_429323540.2 LineCode=CND_907_1F Length=303.20 Units=m
New Line.246253059 Bus1=node_437249705.2 Bus2=node_437249560.2 LineCode=CND_907_1F Length=62.76 Units=m
New Line.246252833 Bus1=node_437068227.1.2.3 Bus2=node_437067747.1.2.3 LineCode=CND_11_3F Length=42.66 Units=m
New Line.244012067 Bus1=node_426068327.3 Bus2=node_426069956.3 LineCode=CND_907_1F Length=70.69 Units=m
New Line.245553720 Bus1=node_430467146.1.2.3 Bus2=node_433778615.1.2.3 LineCode=CND_30_3F Length=3.15 Units=m
New Line.247497039 Bus1=node_443799963.1.2.3 Bus2=node_443800621.1.2.3 LineCode=CND_50_3F Length=35.17 Units=m
New Line.246079560 Bus1=node_436660560.2 Bus2=node_436867421.2 LineCode=CND_907_1F Length=130.59 Units=m
New Line.247635187 Bus1=node_430465393.3 Bus2=node_443916294.3 LineCode=CND_909_1F Length=83.93 Units=m
New Line.1432594560 Bus1=node_429647054.1.2.3 Bus2=node_1728906571.1.2.3 LineCode=CND_11_3F Length=92.00 Units=m
New Line.762902137 Bus1=node_1036017757.2 Bus2=node_1036017782.2 LineCode=CND_902_1F Length=38.88 Units=m
New Line.244534572 Bus1=node_429163472.1 Bus2=node_429163473.1 LineCode=CND_907_1F Length=83.45 Units=m
New Line.247159051 Bus1=node_441707155.1.2.3 Bus2=node_441707156.1.2.3 LineCode=CND_20_3F Length=33.47 Units=m
New Line.244361992 Bus1=node_428141420.1 Bus2=node_428141675.1 LineCode=CND_907_1F Length=98.84 Units=m
New Line.244011535 Bus1=node_425912707.3 Bus2=node_425912708.3 LineCode=CND_907_1F Length=83.52 Units=m
New Line.244862573 Bus1=node_430314013.3 Bus2=node_430314018.3 LineCode=CND_902_1F Length=54.84 Units=m
New Line.2099031876 Bus1=node_2412648732.2 Bus2=node_2412648785.2 LineCode=CND_915_1F Length=45.34 Units=m
New Line.244532181 Bus1=node_428799392.1 Bus2=node_428799398.1 LineCode=CND_907_1F Length=53.59 Units=m
New Line.244532566 Bus1=node_2750227381.2 Bus2=node_428643288.2 LineCode=CND_907_1F Length=103.70 Units=m
New Line.245018554 Bus1=node_431432909.2 Bus2=node_431433209.2 LineCode=CND_907_1F Length=65.95 Units=m
New Line.967030943 Bus1=node_1271763416.1.2.3 Bus2=node_1271763427.1.2.3 LineCode=CND_3_3F Length=36.17 Units=m
New Line.244862252 Bus1=node_2524176454.1 Bus2=node_430310978.1 LineCode=CND_907_1F Length=113.31 Units=m
New Line.244861591 Bus1=node_430150216.2 Bus2=node_430150222.2 LineCode=CND_907_1F Length=114.05 Units=m
New Line.246253232 Bus1=node_433415246.1.2.3 Bus2=node_433415714.1.2.3 LineCode=CND_20_3F Length=28.51 Units=m
New Line.246255169 Bus1=node_437599521.1 Bus2=node_437599522.1 LineCode=CND_907_1F Length=71.90 Units=m
New Line.245554389 Bus1=node_429475574.1 Bus2=node_433953707.1 LineCode=CND_938_1F Length=48.32 Units=m
New Line.243599452 Bus1=node_424079633.1.2.3 Bus2=node_424079634.1.2.3 LineCode=CND_13_3F Length=454.42 Units=m
New Line.244533311 Bus1=node_428985399.2 Bus2=node_428985400.2 LineCode=CND_907_1F Length=285.92 Units=m
New Line.244362223 Bus1=node_428314589.2 Bus2=node_428141739.2 LineCode=CND_907_1F Length=271.23 Units=m
New Line.243599698 Bus1=node_424115223.1.2.3 Bus2=node_424115224.1.2.3 LineCode=CND_13_3F Length=324.28 Units=m
New Line.2099032013 Bus1=node_2412649063.2 Bus2=node_2412649098.2 LineCode=CND_915_1F Length=32.97 Units=m
New Line.247635528 Bus1=node_443917834.1.2.3 Bus2=node_443917999.1.2.3 LineCode=CND_20_3F Length=41.41 Units=m
New Line.244359967 Bus1=node_427805201.2 Bus2=node_427803992.2 LineCode=CND_907_1F Length=269.19 Units=m
New Line.244362105 Bus1=node_428313999.1.2.3 Bus2=node_428314000.1.2.3 LineCode=CND_19_3F Length=65.16 Units=m
New Line.245554072 Bus1=node_429979865.1 Bus2=node_433952139.1 LineCode=CND_938_1F Length=153.65 Units=m
New Line.244861648 Bus1=node_430149862.1 Bus2=node_430150507.1 LineCode=CND_907_1F Length=345.08 Units=m
New Line.246253713 Bus1=node_429646095.3 Bus2=node_437252984.3 LineCode=CND_907_1F Length=81.66 Units=m
New Line.243599477 Bus1=node_424114114.1.2.3 Bus2=node_424114115.1.2.3 LineCode=CND_4_3F Length=29.95 Units=m
New Line.244531707 Bus1=node_428641724.2 Bus2=node_428642378.2 LineCode=CND_907_1F Length=48.19 Units=m
New Line.246787790 Bus1=node_440301496.2 Bus2=node_440301565.2 LineCode=CND_902_1F Length=42.37 Units=m
New Line.247497513 Bus1=node_437599212.2 Bus2=node_443914964.2 LineCode=CND_909_1F Length=37.61 Units=m
New Line.246253245 Bus1=node_437250638.1.2.3 Bus2=node_429323660.1.2.3 LineCode=CND_11_3F Length=32.09 Units=m
New Line.244864380 Bus1=node_430619354.1.2.3 Bus2=node_430619355.1.2.3 LineCode=CND_51_3F Length=91.93 Units=m
New Line.246079570 Bus1=node_436867470.1 Bus2=node_436867471.1 LineCode=CND_907_1F Length=124.47 Units=m
New Line.1402338905 Bus1=node_1697671848.3 Bus2=node_1697671849.3 LineCode=CND_949_1F Length=4.83 Units=m
New Line.246252927 Bus1=node_437068013.1.2.3 Bus2=node_437068698.1.2.3 LineCode=CND_88_3F Length=25.93 Units=m
New Line.244012191 Bus1=node_426070575.3 Bus2=node_426070576.3 LineCode=CND_907_1F Length=96.98 Units=m
New Line.244531953 Bus1=node_428643534.1 Bus2=node_428643674.1 LineCode=CND_902_1F Length=44.43 Units=m
New Line.1855343572 Bus1=node_2127363660.1 Bus2=node_2127364731.1 LineCode=CND_902_1F Length=2.35 Units=m
New Line.247497035 Bus1=node_443800552.3 Bus2=node_443800922.3 LineCode=CND_909_1F Length=60.79 Units=m
New Line.244699749 Bus1=node_429645811.2 Bus2=node_429475634.2 LineCode=CND_907_1F Length=62.23 Units=m
New Line.244360157 Bus1=node_427802988.3 Bus2=node_427806156.3 LineCode=CND_907_1F Length=154.12 Units=m
New Line.244189788 Bus1=node_427323582.2 Bus2=node_427323187.2 LineCode=CND_907_1F Length=171.68 Units=m
New Line.244012033 Bus1=node_426069762.1 Bus2=node_426069782.1 LineCode=CND_902_1F Length=38.12 Units=m
New Line.245018494 Bus1=node_431431509.2 Bus2=node_431432909.2 LineCode=CND_907_1F Length=42.83 Units=m
New Line.246589467 Bus1=node_439064975.2 Bus2=node_439064976.2 LineCode=CND_907_1F Length=345.63 Units=m
New Line.1360923230 Bus1=node_1655646288.1 Bus2=node_1655646302.1 LineCode=CND_907_1F Length=61.83 Units=m
New Line.1565716989 Bus1=node_437598135.1 Bus2=node_1885233669.1 LineCode=CND_915_1F Length=3.76 Units=m
New Line.246788266 Bus1=node_440497206.2 Bus2=node_440497211.2 LineCode=CND_902_1F Length=64.67 Units=m
New Line.245353942 Bus1=node_429163158.1.2.3 Bus2=node_433415201.1.2.3 LineCode=CND_30_3F Length=3.13 Units=m
New Line.244532909 Bus1=node_428803037.2 Bus2=node_428803038.2 LineCode=CND_907_1F Length=120.81 Units=m
New Line.246253698 Bus1=node_2848979470.1 Bus2=node_437252858.1 LineCode=CND_907_1F Length=152.96 Units=m
New Line.1479901373 Bus1=node_1747688255.3 Bus2=node_1747688281.3 LineCode=CND_902_1F Length=34.94 Units=m
New Line.244531790 Bus1=node_428642844.1.2.3 Bus2=node_428642859.1.2.3 LineCode=CND_19_3F Length=40.96 Units=m
New Line.244701802 Bus1=node_429982474.3 Bus2=node_429982475.3 LineCode=CND_907_1F Length=32.44 Units=m
New Line.244531187 Bus1=node_428480965.2 Bus2=node_428480966.2 LineCode=CND_907_1F Length=203.17 Units=m
New Line.246079127 Bus1=node_436658889.2 Bus2=node_436659134.2 LineCode=CND_907_1F Length=69.81 Units=m
New Line.244863524 Bus1=node_430467822.1 Bus2=node_430469071.1 LineCode=CND_907_1F Length=114.28 Units=m
New Line.247496250 Bus1=node_429647354.2 Bus2=node_1038533965.2 LineCode=CND_909_1F Length=46.36 Units=m
New Line.244530748 Bus1=node_428315705.3 Bus2=node_428477357.3 LineCode=CND_907_1F Length=121.95 Units=m
New Line.246254353 Bus1=node_437423657.2 Bus2=node_437423658.2 LineCode=CND_907_1F Length=240.45 Units=m
New Line.246252674 Bus1=node_437067432.1 Bus2=node_437067422.1 LineCode=CND_907_1F Length=276.34 Units=m
New Line.244701771 Bus1=node_429982065.3 Bus2=node_429982320.3 LineCode=CND_907_1F Length=151.78 Units=m
New Line.246252349 Bus1=node_437065798.2 Bus2=node_437065804.2 LineCode=CND_907_1F Length=268.17 Units=m
New Line.246254899 Bus1=node_430313347.2 Bus2=node_437598160.2 LineCode=CND_907_1F Length=172.82 Units=m
New Line.247493757 Bus1=node_436869686.2 Bus2=node_443246475.2 LineCode=CND_909_1F Length=29.75 Units=m
New Line.247493923 Bus1=node_443377225.1.2.3 Bus2=node_443377360.1.2.3 LineCode=CND_50_3F Length=37.95 Units=m
New Line.247496815 Bus1=node_443799817.1.2.3 Bus2=node_443799802.1.2.3 LineCode=CND_20_3F Length=36.67 Units=m
New Line.247635076 Bus1=node_430467922.1 Bus2=node_433778709.1 LineCode=CND_909_1F Length=73.20 Units=m
New Line.246787780 Bus1=node_440301094.3 Bus2=node_440301511.3 LineCode=CND_902_1F Length=47.81 Units=m
New Line.246786815 Bus1=node_440120538.3 Bus2=node_440120568.3 LineCode=CND_902_1F Length=60.02 Units=m
New Line.247497339 Bus1=node_440497030.1 Bus2=node_430466926.1 LineCode=CND_957_1F Length=38.25 Units=m
New Line.247495385 Bus1=node_443530701.3 Bus2=node_443527794.3 LineCode=CND_909_1F Length=30.92 Units=m
New Line.246589612 Bus1=node_436871440.1 Bus2=node_439065701.1 LineCode=CND_907_1F Length=51.68 Units=m
New Line.959975852 Bus1=node_1222073673.2 Bus2=node_1222073684.2 LineCode=CND_907_1F Length=80.22 Units=m
New Line.2182095004 Bus1=node_2488751211.3 Bus2=node_2488751253.3 LineCode=CND_915_1F Length=32.96 Units=m
New Line.244863941 Bus1=node_430617146.1 Bus2=node_430617152.1 LineCode=CND_907_1F Length=141.71 Units=m
New Line.244189742 Bus1=node_426434780.2 Bus2=node_427323337.2 LineCode=CND_907_1F Length=37.98 Units=m
New Line.245354820 Bus1=node_433578496.1.2.3 Bus2=node_433578497.1.2.3 LineCode=CND_30_3F Length=6.69 Units=m
New Line.247494215 Bus1=node_443378823.1 Bus2=node_443378693.1 LineCode=CND_909_1F Length=43.65 Units=m
New Line.244865296 Bus1=node_430932980.1 Bus2=node_430933115.1 LineCode=CND_907_1F Length=29.87 Units=m
New Line.245352123 Bus1=node_429475949.1.2.3 Bus2=node_429808352.1.2.3 LineCode=CND_51_3F Length=111.23 Units=m
New Line.244359655 Bus1=node_427623259.1 Bus2=node_427803638.1 LineCode=CND_907_1F Length=115.40 Units=m
New Line.247496885 Bus1=node_443800108.3 Bus2=node_443800168.3 LineCode=CND_915_1F Length=40.21 Units=m
New Line.244701683 Bus1=node_429811021.3 Bus2=node_429981876.3 LineCode=CND_907_1F Length=84.86 Units=m
New Line.244702177 Bus1=node_430147533.1 Bus2=node_430147534.1 LineCode=CND_907_1F Length=410.97 Units=m
New Line.245556523 Bus1=node_434307951.1 Bus2=node_434307952.1 LineCode=CND_938_1F Length=146.12 Units=m
New Line.244534301 Bus1=node_429161724.1 Bus2=node_429162114.1 LineCode=CND_907_1F Length=130.56 Units=m
New Line.246787425 Bus1=node_440299703.1.2.3 Bus2=node_1733660652.1.2.3 LineCode=CND_28_3F Length=82.96 Units=m
New Line.247496284 Bus1=node_443667857.1 Bus2=node_443667716.1 LineCode=CND_909_1F Length=78.02 Units=m
New Line.245552709 Bus1=node_433580321.1.2.3 Bus2=node_433580322.1.2.3 LineCode=CND_30_3F Length=5.89 Units=m
New Line.244861346 Bus1=node_430148992.3 Bus2=node_430148993.3 LineCode=CND_902_1F Length=37.60 Units=m
New Line.246254245 Bus1=node_2590738115.3 Bus2=node_2590738013.3 LineCode=CND_907_1F Length=52.42 Units=m
New Line.244532048 Bus1=node_428643949.3 Bus2=node_428644149.3 LineCode=CND_907_1F Length=325.33 Units=m
New Line.245016736 Bus1=node_430936709.1 Bus2=node_431097755.1 LineCode=CND_907_1F Length=333.97 Units=m
New Line.244863396 Bus1=100_1042437332.2 Bus2=node_430468427.2 LineCode=CND_907_1F Length=69.51 Units=m
New Line.244863987 Bus1=node_430617381.2 Bus2=node_430617382.2 LineCode=CND_907_1F Length=117.49 Units=m
New Line.1549643696 Bus1=node_429161364.1 Bus2=node_1869770784.1 LineCode=CND_907_1F Length=226.38 Units=m
New Line.244013140 Bus1=node_426255675.2 Bus2=node_426255681.2 LineCode=CND_907_1F Length=56.61 Units=m
...
